/*--------------------------------*- C++ -*----------------------------------*\
| =========                 |                                                 | 
| \\      /  F ield         | OpenFOAM: The Open Source CFD Toolbox           | 
|  \\    /   O peration     | Version:  1.5                                   |
|   \\  /    A nd           | Web:      http://www.OpenFOAM.org               |
|    \\/     M anipulation  |                                                 |
\*---------------------------------------------------------------------------*/
FoamFile 
{
    version     2.0;
    format      ascii;
    class       dictionary;
    object      decomposeParDict;
}

numberOfSubdomains 11;

method          scotch;

simpleCoeffs
{
    n               (1 1 2);
    delta           0.001;
}

hierarchicalCoeffs
{
    n               (1 3 4);
    delta           0.001;
    order           xyz;
}

manualCoeffs
{
    dataFile        "cellDecomposition";
}

metisCoeffs
{
    //n                   (5 1 1);
    //cellWeightsFile     "constant/cellWeightsFile";
}
